256
Properties=species:S:1:pos:R:3 pbc="F F F"
H        2.34432483       1.54893410       1.37877536
H        2.06425595       1.47567070       2.50676489
H        1.34505367       1.13512099       1.69767666
H        1.54449213       2.20867944       1.82962561
H        0.89033830      -0.30390301       3.69070435
H    13444.88378906    -948.61303711   14540.30078125
H        1.44400239       2.28795290       1.89133930
H   -13429.35253906     955.34124756  -14531.38574219
H        1.17983162       1.96813142       0.87492955
H        2.64903021       8.15040207       6.50904369
H        2.37531090       2.38408971       1.25194824
H       79.20936584     -35.91296387      36.38406754
H        0.70488131       2.81755400       1.49034965
H        1.61364043       2.67410088       0.84280527
H        1.70690703       3.27305746       1.76179481
H        1.52186358       2.17722368       1.85185504
H        1.32040656       1.12147653       1.68326402
H        1.83383381       0.41403416       2.33852339
H        2.36865187       1.53908920       1.44236457
H        1.52315319       1.70448089       0.78336686
H        5.66065264       2.53941607      -1.92891765
H        1.97172844       0.87927639       0.84753644
H        2.54224992       2.42759609       2.04005599
H        2.51219106       9.54638290       1.98608387
H        2.25371051       2.00187325       1.02878761
H        1.83911884       7.24078417       4.92257833
H        1.51726258       2.85106564       0.86732036
H     -412.84008789      59.83250427    -136.40518188
H        0.65380853       2.24850178       0.53411514
H        1.30511427       2.03742957       1.75308084
H        0.65431136       2.84477997       1.51184952
H        1.58472574       1.73449397       0.78292149
H        1.52097619       2.21246099       1.78156865
H        1.37832153       1.15215349       1.71733248
H        1.98643267       0.70144540       0.93007934
H        2.42413640       1.57319951       1.47719061
H        2.42455435       1.60777700       1.51001215
H  -70803168.00000000 -2579720.50000000 29068722.00000000
H        1.41714835       1.14784348       1.77290404
H        2.07325745       1.55749738       2.55101776
H  70803560.00000000 2579711.25000000 -29068578.00000000
H        1.41513062       2.52338171       2.89047599
H        1.46836281       2.25712299       1.78604531
H  -380332.15625000 4008217.25000000  605217.75000000
H        1.98365021       1.62062359       2.54448295
H        2.21615648       2.62716293       2.09353828
H        2.42727971       1.72210205       1.50594878
H        2.44899487       0.74033195       2.06508970
H        0.66130817       1.02860200       0.87656653
H        4.87788296       4.31905174       3.18961501
H       -0.56160748       5.96570110      -2.67168140
H        1.55993760       1.70396626       0.78051126
H        4.08623981       5.56022882       4.31321239
H        5.74738932       5.02847528       3.06971812
H        1.38422024       0.74322784       2.82568526
H        1.35320973       1.16115081       1.77133369
H        1.48364615       1.66577399       2.15880299
H        2.22878766       2.52700162       2.12417436
H   380343.56250000 -4008207.75000000 -605208.25000000
H       -1.44999027     -30.97769356      14.01976871
H        2.38568473       1.66245818       1.48413527
H        1.34346986       2.05352044       1.61528707
H        1.91131294       1.64242852       2.51179528
H       12.01281738      42.51371384     -11.51906204
H        2.09974241       1.43903553       2.45471597
H  -350504800.00000000 125873344.00000000 353561792.00000000
H   458825.96875000 -2176622.50000000 2943491.25000000
H        1.20822358       1.10157013       1.80304492
H        2.57176566       2.38811326       2.00431824
H        1.80155611       2.47644973       2.88811970
H        2.16437483       1.53001201       2.50210810
H        1.50953233       2.24420118       1.82518959
H        1.50140274       1.22449565       1.71340120
H        1.55210507       1.75173378       0.79025090
H        2.56124473       1.31639636       1.46413136
H        2.37944698       2.31461573       1.14781046
H      142.22978210     141.00952148     -74.71878052
H     -128.16075134    -132.65808105      76.37906647
H        7.67998886      -8.86119747       3.12867093
H        2.62110829       2.16775703       2.16603804
H        1.88293266       0.32676363       2.20955157
H        1.31342852       1.13158274       1.70539033
H        2.84954166       0.73446375       1.96268249
H        2.09774590       0.72067690       1.16016102
H        2.09991670       1.48205221       2.48835397
H       38.52755737      -7.45403290      80.27771759
H        1.03434420       1.64385927       2.58147192
H      -25.72190094      16.18846130     -68.74379730
H        1.48908222       2.31197333       1.83613873
H        2.40719247       1.76063204       1.48846543
H        1.53301632       1.14866543       1.72945559
H        1.43001330       1.80873704       0.85926759
H        0.64694852       1.72005999       1.45447040
H        1.94949162       1.61535513       2.52075982
H       61.59030151    -408.22814941    -458.37808228
H        1.54134333       2.33799338       1.80892897
H        2.01666355       1.46262324       2.49297547
H        1.58077550       2.24790668       1.81126380
H        2.42037988       1.66447711       1.50623035
H        1.61833787       1.68530226       0.76015699
H        2.34557819       0.58259332       1.94377828
H        0.88180238       1.72482288       2.57919264
H       34.24055099      30.40386009      59.74850845
H        1.39711916       1.16431320       1.73897123
H        0.54416972       1.75061297       1.52336717
H        1.96939194       1.63493061       2.52768755
H        0.84884089       0.90556604       0.86579216
H        8.72549725       0.98360831       3.94684029
H        1.51395249       1.10217118       1.66770637
H  -236424.45312500  221155.65625000  196362.17187500
H        1.55229223       1.79770637       0.80347067
H        0.66125876       1.75946140       1.53538740
H        1.37755263       1.10013819       1.69889128
H        0.64442998       1.92947996       1.40053594
H      -33.67955017      84.13576508     102.32621002
H        1.76124358       2.11354804       1.89047158
H       12.57881260       6.79641676      10.13322830
H        1.97776914       1.70154703       2.51997304
H       47.73932266     -77.19271088     -96.99524689
H        0.84414089       1.93174112       2.50878763
H    -4885.90332031  -11378.35839844    4188.92089844
H        2.05733156       1.11074591       1.56233060
H     4897.21484375   11389.98242188   -4185.27929688
H        1.19180298       0.95293605       2.18093634
H        1.46927905       0.62897491       2.62812567
H   236436.50000000 -221145.14062500 -196350.96875000
H        1.56884611       2.40314794       1.72518575
H        1.56577981       1.78667367       0.80349714
H        1.93262994       1.74500227       1.34310138
H  350504832.00000000 -125873336.00000000 -353561792.00000000
H        1.48469174       0.36214042       2.18290925
H        2.20399022       0.69247293       1.41634881
H  -458815.46875000 2176636.25000000 -2943487.00000000
H        1.53019547       1.17531538       1.65343857
H     1208.18017578     312.82150269     440.78918457
H       81.72019196     -20.72375107       3.27230000
H        2.24626279       0.48033524       2.10771036
H        1.59101021       2.27395439       1.85114598
H        1.44586432       1.14476645       1.62604296
H        0.89289391       1.67369163       2.43443990
H        1.91388535       1.44486749       2.56839418
H        1.88442254       2.51633716       2.93233371
H        2.50548458       1.47998250       1.65714753
H       15.60107422       3.52101493      12.71947575
H        2.10319257       1.33935010       2.39824104
H        1.32491934       2.02029085       2.25316882
H        1.10663605       0.96039939       1.33951890
H        2.42093706       1.78908753       1.49675095
H      -67.31561279      27.25891495      10.81564331
H        5.15004921       1.85112154       8.04331875
H        1.92209315       1.83739793       0.87676549
H        1.34603572      10.15832901       8.87067413
H        9.03921032       2.82476735       6.53232288
H        0.83379191       1.72063804       2.37138820
H        1.99975681       1.54705334       2.60976958
H        0.40593383       0.97290730       1.67753816
H        1.77139890       1.81762516       0.88348311
H      -58.53182602     431.19256592     471.82644653
H        1.88895202       2.37348008       1.84265471
H        1.50682592       1.19957304       1.71344304
H        5.84959412       2.87320232      -0.20844969
H        1.03605831       1.06476915       8.69437408
H        1.65094852       1.61294127       0.65286446
H       -0.81863588       2.19543242      11.20423508
H        3.20788264       5.78597212       2.49070740
H        7.22980547       7.06196642       4.99818707
H        1.48153770       2.33277082       1.75045979
H        2.40929914       1.61780524       1.37736595
H      -25.92205429     -18.14130211     -46.24388504
H        1.56628823       2.33927798       1.70290291
H        0.63038647       1.92417574       1.27391195
H        1.46068239       1.18282688       1.70357537
H        6.87263346       9.26317310       4.49181747
H        1.02816343       0.83545595       1.06952786
H        0.12752467      -2.48119164       2.87370396
H        1.60092211       1.74006712       0.75285983
H        0.74937761       1.98298681       1.31264603
H        1.05390418       2.87669754       1.94587016
H        2.99909759       1.74349296       2.21847367
H        1.81502831       1.76392806       0.93041474
H        1.93495798       1.81331360       2.47438598
H        1.40727818       1.91882944       1.57313895
H        1.62084079       1.58834720       0.62003404
H        2.35334945       2.62647486       1.84883142
H        2.12610984      -0.63309294       5.67052126
H        1.07141030       0.85142040       1.03583860
H        2.43532920       5.38041210       2.86608672
H        2.07939649       1.67435789       2.49282074
H        1.68592107       1.29635274       1.81601989
H        0.58304912       1.80291653       1.32072222
H        0.89657426       1.84297299       2.34616590
H        2.19518232       2.24178648       1.58647835
H        1.09667552       0.83184361       1.24448824
H        1.61129320       1.52646613       2.03782821
H        6.56051159       4.06253910       0.01580789
H        3.20063996       6.81125832       2.45012212
H    -1195.15905762    -300.47573853    -429.05139160
H        2.62746716       1.54178369       1.67155743
H        1.83658111       2.32021022       1.87339473
H        7.57799292       0.86895442       0.91230202
H        1.97059834       1.45488966       2.59394360
H        0.65642387       6.66621208       4.37342119
H        6.48194695      -2.34501100      10.04025745
H        1.46703899       1.28708827       1.57688034
H      -99.35466766      49.19202805   -1140.46899414
H        1.32049060       1.67476714       2.48241377
H        2.18377352       0.45122004       3.94471192
H        1.19557369       2.51975441       1.75448751
H        1.76485384       1.50923705       0.72677732
H        1.55374718       2.41379881       1.31812239
H        2.18062305       0.67186809       1.59937847
H        1.39878571       1.37517619       1.82129169
H  55920360.00000000 -94394280.00000000 58148960.00000000
H        1.54208887       1.19705689       1.61432827
H        2.00374794       1.42823660       2.54813647
H        2.32253838       1.29129791       0.74509197
H        1.67852807       2.28833365       1.86991692
H        2.28552794       3.37184143       7.10242891
H        0.94082034       1.82460415       2.56815529
H        1.09189379       0.75280368       2.49120903
H      108.26313019     -37.85489273    1134.74047852
H        0.81998873       2.58869171       1.96263552
H        1.39007056       2.83595920       2.86162663
H        0.51058245       1.62522960       1.59484136
H        0.67001015       1.81202757       1.17266321
H        1.43847466       1.15185547       1.66725874
H        2.36883783       1.80485654       1.68712044
H        1.72275162       1.68737376       0.78682053
H  -55920348.00000000 94394288.00000000 -58148952.00000000
H        2.12191319       1.81740129       2.39354014
H        1.51020467       1.96508944       0.79544055
H        1.55384564       0.99722064       2.72539020
H        0.95953387       1.01929486       0.72280592
H        2.95124674       7.67917252       8.92585754
H        1.53683662       1.24751806       1.61211288
H        1.00239420       1.89581621       2.38136101
H        4.90960741       4.68272448       1.44384384
H        1.12061048       7.14571619       3.56303859
H        1.53076744       1.86901271       2.47320724
H        1.38773072       2.44651866       1.53293538
H        0.86154735       1.81249011       2.36069441
H        1.93484879       1.78972220       2.41437674
H        2.40211320       0.77292204       2.08728576
H        1.40297198       1.08546317       1.70537615
H        1.45008671       2.23696852       1.52100301
H        7.81256819       4.02131748       0.22411741
H        1.42916679       1.17491889       1.65351558
H        2.40537572       1.60501742       1.39109814
H        2.40362215       1.62729478       1.36791873
H        1.22783685       1.53122604       1.85706532
H        2.16181922       1.62026596       2.43002629
H        1.72025537       2.41827345       1.67541635
H        1.72984588       2.53984857       2.54951334
H        1.22521710       2.63243198       1.47144032
H        0.77701128       2.98286557       2.37454605
H        1.83793092       3.43547916       1.93520701
256
Properties=species:S:1:pos:R:3 pbc="F F F"
H        1.19444215       0.06842781       0.05920402
H        0.73112828       0.26827133       1.05492353
H        0.38164610       0.27165177      -0.68819058
H        0.46855500       0.90584260       0.19522506
H        0.12882014      -0.17629787       0.25315967
H    13443.47363281    -950.02355957   14538.89062500
H        0.16001427       0.94699085       0.20374332
H   -13430.76269531     953.93072510  -14532.79589844
H       -0.00947205       0.41754338      -0.73717594
H        1.01092982       6.34519053       4.54686117
H        1.10269392       0.39690438      -0.07678794
H       77.79883575     -37.32350159      34.97352982
H        0.08225096       0.99602169       0.25675842
H        0.83282787       0.53251833      -0.37839034
H        0.74433309       0.44361895       0.93887901
H        0.13507870      -0.11070311       0.17714898
H        0.08979210      -0.13409752       0.22399081
H        0.82852834      -0.80035692       0.72117472
H        1.19513190      -0.00123500       0.08673127
H        0.51318681       0.21161145      -0.72720903
H        2.81680942       0.66727692      -1.92737234
H        0.74234772      -0.81076223      -0.40662795
H        1.20224512       1.02522826       0.50237978
H        1.09718502       7.92482281       0.56088036
H        0.94085264       0.27528632      -0.25451562
H        0.61398852       5.74340963       3.68644285
H        0.88018423       1.33338904      -0.53181309
H     -414.25064087      58.42196655    -137.81570435
H       -0.15493929       1.21968997      -0.79072863
H       -0.04227270      -0.02994116       0.10547889
H        0.10041663       1.04740453       0.24663512
H        0.41869754       0.34869415      -0.77155596
H        0.62898761       0.86048007       0.12743458
H        0.12684356      -0.09880873       0.27255848
H        0.66926563      -0.82392150      -0.37718114
H        1.24235964      -0.06235195       0.10884995
H        1.30733573      -0.01560595       0.10995600
H  -70803168.00000000 -2579722.00000000 29068722.00000000
H        0.21503292      -0.04331021       0.21049570
H        0.80718988       0.29666615       1.07062685
H  70803560.00000000 2579709.75000000 -29068578.00000000
H       -0.60317677       0.46704715       0.81579626
H        0.08519255       1.00903296       0.13084841
H  -380333.56250000 4008215.75000000  605216.31250000
H        0.47657850       0.46535093       0.99536544
H        0.09941901       1.06133246       0.16168439
H        1.06325853       0.52229947       0.06595784
H        1.01007795      -0.39659682       0.61415833
H        0.52148336       0.14226991      -0.73510581
H        2.57148695       2.54904938       1.43065107
H       -1.76668978       4.22876883      -3.71861196
H        0.68256164       0.89893067       0.06327306
H        2.55703235       3.32784200       2.24005270
H        3.48633027       3.17878580       1.63603914
H        0.87461078      -0.72301275       0.73877150
H       -0.00461627       0.02642032       0.34657755
H       -0.11486524      -0.46337035       1.15751898
H        0.49584067       0.47631472       1.01297557
H   380342.15625000 -4008209.25000000 -605209.68750000
H       -2.86051559     -32.38822556      12.60923386
H        0.07403389      -0.05916321       0.11554126
H       -0.60577923       0.49066049       0.82249945
H        0.49501958       0.48015529       1.04737341
H       10.60228348      41.10317612     -12.92959595
H        0.73948532       0.29410651       1.06943083
H  -350504800.00000000 125873344.00000000 353561792.00000000
H   458824.56250000 -2176624.00000000 2943489.75000000
H        0.16086617      -0.15715796       0.25265878
H        1.15969491       0.44182387       0.03090927
H        0.36335742       1.19901741       1.24270165
H        0.81093436       0.26813245       1.01031780
H        0.19113466       0.92038304       0.21991758
H        0.16330884      -0.13642660       0.19608232
H        0.31459826       0.39131579      -0.78980941
H        1.14087665      -0.59416646       0.36282253
H        1.11958194       0.42316753      -0.05350613
H      140.81925964     139.59899902     -76.12931061
H     -129.57128906    -134.06860352      74.96853638
H        6.43800545     -10.13165855       1.63264680
H        0.79342753       0.30720100       0.91291267
H       -0.04678361      -0.47960627       1.26547825
H        0.08868796      -0.12247498       0.22451319
H        0.61836481      -1.06709337       0.65833569
H        0.78166896      -0.79913461      -0.34116581
H        0.77250063       0.21020418       1.05234170
H       37.11701965      -8.86456776      78.86718750
H       -0.28820342       0.29201651       0.97502458
H      -27.13243675      14.77792645     -70.15432739
H        0.14965491       0.96008033       0.20306891
H        1.04950237       0.38901192       0.09160125
H        0.14982660      -0.21330038       0.11626995
H        0.25587845       0.39802173      -0.73099375
H       -0.65806264       0.42487624      -0.29370221
H        0.45528799       0.32776731       1.00456846
H       60.17976379    -409.63870239    -459.78863525
H        0.14657225       0.96944183       0.19018501
H        0.71010149       0.25395045       1.02214348
H        0.67528236       0.86531758       0.11980227
H        1.26462173      -0.03845577       0.17339812
H        0.51192939       0.17718758      -0.70077533
H        0.79983616      -0.81558579       0.73596895
H       -0.03371814      -0.42552558       1.32209086
H       32.83001328      28.99332428      58.33797073
H        0.09296890      -0.08469164       0.28577352
H       -0.56052828       0.38174582       0.80197239
H        0.51096559       0.48625553       1.04321122
H       -0.71643293       0.39107677      -0.28568962
H        7.06855917      -0.36851573       2.48768735
H        0.11865609      -0.18874697       0.11223517
H  -236425.85937500  221154.25000000  196360.76562500
H        0.27069056       0.43832561      -0.75814122
H       -0.53462964       0.36699238       0.76794875
H       -0.05714617       0.07030963       0.23850441
H       -0.22678639       1.14820850       0.63800472
H      -35.09008789      82.72523499     100.91567993
H        0.54461932       0.44461626       1.07240939
H       11.14704514       5.37837076       8.70692921
H        0.56386638       0.48683837       1.13358033
H       46.32878494     -78.60324097     -98.40577698
H       -0.54624134       0.38541144       1.30182421
H    -4887.31396484  -11379.76855469    4187.51025391
H        1.09037399      -0.44591933       0.82128906
H     4895.80419922   11388.57226562   -4186.68994141
H       -0.00681836      -0.52081722       1.04740942
H        0.02646442      -0.52023292       1.13387144
H   236435.09375000 -221146.54687500 -196352.37500000
H        0.24430913       1.05052137       0.15589310
H        0.38564408      -0.04218633       0.08945623
H        1.25078726       0.18366231       0.10701889
H  350504832.00000000 -125873336.00000000 -353561792.00000000
H        0.95333439      -0.38715705       1.11308694
H        0.99754232      -0.88231820       0.10646468
H  -458816.87500000 2176634.75000000 -2943488.50000000
H        0.24765620      -0.20749076       0.14810646
H     1206.76953125     311.41094971     439.37863159
H       80.30966187     -22.13428688       1.86176550
H        0.34826189      -0.69803208       1.11242557
H        0.15191564       0.90122527       0.18167293
H        0.11686101      -0.23654671       0.09228441
H        0.01107296       0.34152365       1.08412886
H       -0.27182674       0.25569347       0.98166460
H        0.33207244       1.22970808       1.22444630
H        0.82655865       0.25113541       0.81912875
H       14.18105793       2.10864544      11.29946041
H        1.09902918      -0.28696880       1.09876013
H        0.43527773       0.51061511       1.08119106
H        0.19969147      -0.16140191       0.30215788
H        1.27866209       0.18435237       0.18674710
H      -68.72614288      25.84837914       9.40510941
H        3.86815739       0.55577415       6.28147507
H       -0.47683614       0.59334773      -0.06038227
H       -0.05644986       8.69381714       7.41792727
H        7.22144747       1.32935703       5.12063217
H        0.08661735       0.27686110       1.06677663
H        1.02058077       0.24662378       0.64351249
H       -0.71855265      -0.28135425       0.57831591
H        0.92187411       0.44590309      -0.39016041
H      -59.94236374     429.78201294     470.41589355
H        0.10254519       0.83674991       0.22860202
H        0.22542928      -0.22456644       0.06150785
H        0.47624478       0.89253092       0.08412471
H       -0.96692771       0.07817224       7.85694933
H        0.65140557       0.12844901      -0.68762136
H       -1.56463063       0.40583938       8.74855232
H        1.37761223       0.87978172       0.67568195
H        5.63625336       5.41754007       3.51045990
H        0.20526083       0.31733394       0.98111892
H        0.42932773       0.92712170       0.05363749
H      -27.33259010     -19.55183792     -47.65442276
H        0.16573380       1.01197684       0.16873385
H       -0.74541283       0.80621767       0.71568543
H        0.26615185      -0.18626305       0.03353529
H        5.39241934       7.73852587       3.03129101
H        0.25909084      -0.10432559       0.17803723
H       -0.81299299      -0.25502267       0.35768804
H       -0.53597480       0.45145589      -0.39065638
H       -0.37281415       1.07215846       0.75519520
H        0.11150526       1.22974050       1.74035895
H        1.17128897       0.17038903       0.31440035
H        0.41964149       0.89803678       0.08874228
H        0.51306224       0.42744827       1.12157750
H       -0.18687643       1.30674028       0.71100926
H       -0.56526822       0.43408781       0.25297916
H        0.88329792       1.45463324       0.93914694
H       -0.50559556       0.55235451       1.44900763
H       -0.55964595       0.24199912       0.46483541
H        1.14139485       1.18283486       0.60972148
H        0.41653976       0.44701672       0.92172354
H        0.52735060       0.46310878       1.06086588
H       -0.38412222       0.47439471      -0.55030489
H       -0.47387391       0.60974973       0.82417583
H        0.13281712       1.14083195       0.13250332
H        0.20477255      -0.11228594       0.34061858
H        1.29593861       0.21195608       0.26867279
H        4.93485832       1.54167414      -0.90876275
H        1.78285062       4.87340307       0.94574797
H    -1196.56970215    -301.88629150    -430.46194458
H        0.65364438       0.56908250      -0.52365083
H        0.19206034       0.93957931       0.43371290
H        5.06396675       0.46803093      -0.61396259
H        0.99537742       0.16787535       0.58038551
H       -0.37699819       3.64739680       2.47772622
H        4.92629337      -3.67490077       8.59586811
H        0.03386258      -0.10851638       0.07796534
H     -100.76519775      47.78149033   -1141.87963867
H       -0.27021897       0.30147234       1.13409340
H        0.50555396       0.91500634       1.63394606
H       -0.38174805       0.89339149       0.19867566
H        0.66109616      -0.00039156      -0.67183644
H        0.43800104       0.89560628       0.05357221
H        1.03955686      -0.80714601      -0.00589185
H        0.17618152      -0.18220952       0.28793901
H  55920360.00000000 -94394280.00000000 58148960.00000000
H        0.19516946      -0.25632036       0.01519793
H        0.99163115       0.17066337       0.57467711
H        0.95964396       0.16391587      -0.57426625
H        0.34889397       1.05666244       0.36450303
H        0.47466257       1.76379526       3.88344598
H       -0.01550046       0.37848595       1.10833514
H        0.29011777      -0.62959927       1.02228105
H      106.85260010     -39.26543045    1133.32983398
H       -0.93857622       0.88542241       0.45140773
H       -0.29852635       1.45672846       1.12601161
H       -0.77233523      -0.16589440       0.48453221
H       -0.39131466       0.42735261      -0.45080125
H        0.15685129      -0.18739481       0.21668227
H        1.17918491       0.21410537       0.46247905
H        0.29475164       0.91169959       0.27364507
H  -55920348.00000000 94394288.00000000 -58148952.00000000
H        1.15824175       0.25209749       0.45850062
H        0.33570197       0.89259911       0.09402761
H        0.33903015       0.34100068       1.16087520
H       -0.58691084       0.44077709      -0.26927277
H        1.46889901       6.01874352       7.28847551
H        0.23108651      -0.17629912       0.07269988
H       -0.61370814      -0.07715755       0.74388933
H        0.25442588       0.86702996       0.28424862
H       -0.24855818       3.29236364       1.46799278
H       -0.16403601       0.36862355       1.17178106
H       -0.78697848       0.97398323       0.50874615
H       -0.38366303       0.06456356       1.07702434
H        0.59516221       0.43662578       1.15360165
H        0.72176361      -0.63659823       1.01793146
H        0.17306325      -0.19648437       0.17682174
H       -0.19006117       1.20072114       0.86638975
H        5.89631128       2.46766782      -1.04769993
H        0.25152549      -0.21584916       0.10397951
H        0.55261165       0.82400841       0.12080514
H        0.40122175       0.91135192      -0.07897083
H       -0.63119864       1.12225187       1.14864516
H        0.23517141       0.56959367       0.92163938
H       -0.59944236       0.80387497       0.13200688
H        0.29376796       1.63543189       1.07160079
H       -1.01079333       1.17677188       0.10384767
H       -0.69189250       1.44906294       1.45930910
H       -0.49794441       2.02703524       0.48626179
